0.0 -0.1 8.6 293.0 0.0140 102280.6
10.0 -0.1 8.6 291.0 0.0140
20.0 -4.0 12.3 290.9 0.0139
35.0 1.1 14.3 290.6 0.0139
52.0 -4.0 14.2 290.8 0.0142
70.0 2.1 15.8 251.6 0.0004
95.0 3.2 17.7 290.5 0.0142
